
#######################################################################
#
#                 Cambridge Crystallographic Data Centre
#                                CCDC 
#
#######################################################################
#
# If this CIF has been generated from an entry in the Cambridge 
# Structural Database, then it will include bibliographic, chemical, 
# crystal, experimental, refinement or atomic coordinate data resulting 
# from the CCDC's data processing and validation procedures.
#
#######################################################################

data_MFM-300_Ga2_Desolvated
_symmetry_cell_setting           tetragonal
_symmetry_space_group_name_H-M   'I 41 2 2'
_symmetry_Int_Tables_number      98
_space_group_name_Hall           'I 4bw 2bw'
loop_
_symmetry_equiv_pos_site_id
_symmetry_equiv_pos_as_xyz
1 x,y,z
2 1/2-x,1/2-y,1/2+z
3 -y,1/2+x,1/4+z
4 1/2+y,-x,3/4+z
5 1/2-x,y,3/4-z
6 x,1/2-y,1/4-z
7 1/2+y,1/2+x,1/2-z
8 -y,-x,-z
9 1/2+x,1/2+y,1/2+z
10 -x,-y,z
11 1/2-y,x,3/4+z
12 y,1/2-x,1/4+z
13 -x,1/2+y,1/4-z
14 1/2+x,-y,3/4-z
15 y,x,-z
16 1/2-y,1/2-x,1/2-z
_cell_length_a                   15.0174(7)
_cell_length_b                   15.0174(7)
_cell_length_c                   11.9111(11)
_cell_angle_alpha                90.00
_cell_angle_beta                 90.00
_cell_angle_gamma                90.00
_cell_volume                     2686.22
loop_
_atom_site_label
_atom_site_type_symbol
_atom_site_fract_x
_atom_site_fract_y
_atom_site_fract_z
Ga1 Ga -0.19253(3) 0.19253(3) 0.0000
O1 O -0.1002(2) 0.2870(2) -0.0037(3)
O2 O -0.2522(4) 0.2500 0.1250
H2 H -0.3077 0.2500 0.1250
O3 O -0.1229(3) 0.3796(3) 0.1428(3)
C2 C -0.0000 0.5000 0.0479(6)
H2A H -0.0000 0.5000 0.1260
C3 C -0.0913(4) 0.3596(4) 0.0475(4)
C4 C -0.0408(4) 0.4311(4) -0.0116(5)
C6 C -0.0000 0.5000 -0.1869(6)
C5 C -0.0386(5) 0.4307(5) -0.1273(5)
H5 H -0.0635 0.3831 -0.1662

#END
